<?xml version="1.0" encoding="UTF-8"?>

<!-- generated on 2025-05-07 11:29:49.510730 by osmWebWizard.py v1_22_0+0322-04da4e3afd3
  options: 
-->

<additional xmlns:xsi="http://www.w3.org/2001/XMLSchema-instance" xsi:noNamespaceSchemaLocation="http://sumo.dlr.de/xsd/additional_file.xsd">
   <edgeData id="wizard_example" period="3600" file="edgeData.xml"/>
</additional>
